LTspice 24.0.12 for Windows
Circuit: * E:\2024-2025\ED\Lab2\Draft1.asc
Start Time: Fri Dec  6 22:03:21 2024
solver = Normal
Maximum thread count: 16
tnom = 27
temp = 27
method = modified trap
Direct Newton iteration for .op point succeeded.
Total elapsed time: 0.039 seconds.

